 98
 LJ_98
H      0.0000000000      0.5433279248      0.3841908600
H     -0.5433279248      0.0000000000     -0.3841908600
H      0.5433279248      0.0000000000     -0.3841908600
H      0.0000000000     -0.5433279248      0.3841908600
H     -1.0919628296     -0.5410023791      0.3895878707
H     -0.5410023791      1.0919628296     -0.3895878707
H     -1.0919628296      0.5410023791      0.3895878707
H      1.0919628296      0.5410023791      0.3895878707
H      0.5509604505      0.0000000000      1.1546807725
H      0.0000000000      0.5509604505     -1.1546807725
H      0.5410023791      1.0919628296     -0.3895878708
H      1.0919628296     -0.5410023791      0.3895878707
H      0.0000000000     -0.5509604505     -1.1546807725
H     -0.5509604505      0.0000000000      1.1546807725
H     -0.5410023791     -1.0919628296     -0.3895878707
H      0.5410023791     -1.0919628296     -0.3895878707
H      0.5495500674      1.4494104687      0.6362973918
H     -0.8998604013      0.0000000000     -1.4134785504
H      0.5495500674     -1.4494104686      0.6362973919
H     -1.4494104687     -0.5495500674     -0.6362973918
H      0.8998604013      0.0000000000     -1.4134785504
H      1.4494104687     -0.5495500674     -0.6362973919
H     -0.5495500674     -1.4494104686      0.6362973919
H     -1.4494104687      0.5495500674     -0.6362973919
H     -0.5495500674      1.4494104687      0.6362973918
H      0.0000000000     -0.8998604013      1.4134785504
H      0.0000000000      0.8998604013      1.4134785503
H      1.4494104686      0.5495500674     -0.6362973919
H     -1.4806068749     -1.4806068749      0.0000000000
H      0.0000000000      0.0000000000     -2.0938943230
H     -1.4806068749      1.4806068749      0.0000000000
H      1.4806068749     -1.4806068749      0.0000000000
H      1.4806068749      1.4806068749      0.0000000000
H      0.0000000000      0.0000000000      2.0938943230
H      0.0000000000      2.0094519940     -0.1473661231
H      0.9005224121     -1.1089295820     -1.4208971314
H      1.1089295820     -0.9005224120      1.4208971315
H      1.1089295820      0.9005224121      1.4208971314
H     -0.9005224121     -1.1089295820     -1.4208971314
H     -0.9005224121      1.1089295819     -1.4208971315
H     -1.1089295819     -0.9005224120      1.4208971315
H     -2.0094519940      0.0000000000      0.1473661231
H      0.0000000000     -2.0094519940     -0.1473661230
H      2.0094519940      0.0000000000      0.1473661231
H     -1.1089295820      0.9005224121      1.4208971314
H      0.9005224121      1.1089295819     -1.4208971315
H     -1.6673581969      0.0000000000      1.1790002877
H      1.6673581969      0.0000000000      1.1790002877
H      0.0000000000     -1.6673581969     -1.1790002877
H      0.0000000000      1.6673581969     -1.1790002877
H      2.3721915363      0.0000000000     -0.8943862572
H      0.5536691807     -1.8185223556      1.6773927216
H     -0.5536691807      1.8185223557      1.6773927216
H     -1.8185223557     -0.5536691807     -1.6773927216
H      0.0000000000      2.3721915363      0.8943862572
H     -1.8185223557      0.5536691806     -1.6773927216
H     -0.5536691807     -1.8185223556      1.6773927216
H     -2.3721915363      0.0000000000     -0.8943862572
H      1.8185223557     -0.5536691807     -1.6773927216
H      0.0000000000     -2.3721915363      0.8943862573
H      0.5536691807      1.8185223557      1.6773927216
H      1.8185223556      0.5536691807     -1.6773927216
H      0.0000000000      1.0966216208     -2.1063980686
H      0.9411375478     -2.0377591686     -0.7754285845
H      2.0377591686      0.9411375478      0.7754285845
H     -0.9411375477     -2.0377591687     -0.7754285845
H      1.0966216209      0.0000000000      2.1063980686
H      2.0377591686     -0.9411375477      0.7754285845
H     -0.9411375478      2.0377591686     -0.7754285845
H     -2.0377591686     -0.9411375478      0.7754285845
H     -2.0377591686      0.9411375478      0.7754285845
H      0.0000000000     -1.0966216209     -2.1063980686
H     -1.0966216209      0.0000000000      2.1063980686
H      0.9411375477      2.0377591686     -0.7754285846
H     -0.9328305095      0.5511399116     -2.3649075690
H      1.8630874779      1.4813968800     -1.0493255479
H     -2.4142273895      0.9302569683     -0.2698960101
H     -0.9302569684     -2.4142273895      0.2698960101
H     -0.5511399116     -0.9328305095      2.3649075691
H      0.5511399116      0.9328305096      2.3649075690
H      0.9328305095     -0.5511399117     -2.3649075690
H      2.4142273895      0.9302569684     -0.2698960101
H     -2.4142273895     -0.9302569684     -0.2698960101
H     -0.9302569684      2.4142273895      0.2698960101
H     -1.4813968800      1.8630874779      1.0493255479
H      1.8630874779     -1.4813968800     -1.0493255479
H      0.9302569684     -2.4142273895      0.2698960101
H     -1.8630874779     -1.4813968800     -1.0493255478
H      0.9328305095      0.5511399116     -2.3649075691
H     -1.4813968800     -1.8630874779      1.0493255479
H      1.4813968800      1.8630874779      1.0493255478
H      1.4813968800     -1.8630874779      1.0493255479
H      2.4142273895     -0.9302569684     -0.2698960101
H     -1.8630874779      1.4813968800     -1.0493255479
H      0.5511399116     -0.9328305095      2.3649075691
H      0.9302569684      2.4142273895      0.2698960101
H     -0.9328305095     -0.5511399117     -2.3649075690
H     -0.5511399116      0.9328305096      2.3649075690
