 123
 LJ_123
H      0.0089041095      0.0064693740      0.0356138134
H      0.0033444928      0.0024347619      1.0809919966
H      0.3014048073     -0.8801631778      0.4965593264
H     -0.7464024978     -0.5422910072      0.4819228384
H     -0.7439478445      0.5586412867      0.4965528769
H      0.2966241281      0.8938738738      0.5003320060
H      0.9417843358      0.0058870442      0.5003359865
H     -0.2790674413     -0.8744971317     -0.4424763449
H     -0.9179308912      0.0048229545     -0.4424802865
H     -0.2803824251      0.8808051855     -0.4448272617
H      0.7511673548      0.5457530385     -0.4462354373
H      0.7510544826     -0.5388459007     -0.4448208980
H      0.0023858174      0.0017288532     -1.0138446937
H     -0.0233894058     -0.0169837130      2.1606703423
H      0.2971991562     -0.9240189461      1.5777196666
H     -0.7813242206     -0.5676583177      1.5542469513
H     -0.7869613858      0.5681999957      1.5777129776
H      0.2981645583      0.9197617127      1.5839890348
H      0.9668765331     -0.0006413428      1.5839931606
H      1.2754623071     -0.9164763243      0.9756899366
H      0.5954154472     -1.8034541090      0.9642636242
H     -0.4767418137     -1.4657446302      0.9457439921
H     -1.5290572325     -1.1109209514      0.9315932354
H     -1.5413313360     -0.0004628855      0.9457374239
H     -1.5311974205      1.1235773409      0.9642505035
H     -0.4774854370      1.4962492145      0.9756791214
H      0.5964344256      1.8194485392      0.9607468147
H      1.2748640784      0.9262473539      0.9741427322
H      1.9147026669      0.0050079984      0.9607549481
H      1.0606314054     -1.4573907099      0.0039125206
H      0.0073683133     -1.7986560402      0.0095608902
H     -1.0594989196     -1.4558764583      0.0005360264
H     -1.7120239570     -0.5577528105      0.0005320005
H     -1.7083466640      0.5628229925      0.0095503047
H     -1.0583078442      1.4590789110      0.0038994473
H      0.0074327353      1.8045406402      0.0024441113
H      1.0605469933      1.4633593342     -0.0003267335
H      1.7194644666      0.5564372534     -0.0003226682
H      1.7185169754     -0.5505647295      0.0024546683
H      0.4742715743     -1.4519418252     -0.9420490640
H     -0.5749479201     -1.7768180827     -0.9317383756
H     -1.2323670579     -0.8953713104     -0.9406512275
H     -1.8675191219      0.0022535181     -0.9317463504
H     -1.2343167570      0.8997282210     -0.9420596055
H     -0.5764352458      1.7788182175     -0.9382952012
H      0.4738125150      1.4540968519     -0.9490554815
H      1.5139655088      1.0999561193     -0.9433597825
H      1.5293484515      0.0012762988     -0.9490489691
H      1.5136323889     -1.0979130354     -0.9382823061
H     -0.2909073660     -0.8971498576     -1.5208453211
H     -0.9431290544      0.0005562662     -1.5208493452
H     -0.2918799340      0.8974694028     -1.5239860682
H      0.7634979805      0.5547069211     -1.5263146873
H      0.7633547704     -0.5549365398     -1.5239795576
H     -0.0014521370     -0.0010643841     -2.0847011615
H     -0.5206954220     -1.5217060592      2.0363865805
H     -1.5872414581     -1.1531894081      2.0154343234
H     -1.6081408788     -0.0249658200      2.0363798712
H     -0.2072012937     -2.4113916048      1.4146958693
H     -1.2741277344     -2.0593288212      1.4103251535
H     -2.3522712201     -0.5753916467      1.4103185016
H     -2.3574044606      0.5481091059      1.4146826031
H      2.0615616745     -1.4930601708      0.4520550923
H      1.3713630939     -2.3968936941      0.4544734610
H      0.2955794135     -2.7408949766      0.4647785719
H     -0.7875065145     -2.4102378367      0.4631638137
H     -1.8566504888     -2.0441595576      0.4575009256
H     -2.5178497521     -1.1340968623      0.4574968462
H     -2.5356272710     -0.0041560762      0.4631530283
H     -2.5154089669      1.1280985387      0.4647612289
H     -1.8558088378      2.0449273265      0.4544535502
H     -0.7829289811      2.4220452697      0.4520375425
H      0.3040053225      2.7520700512      0.4440558618
H      1.3776292379      2.4044793625      0.4409790352
H      2.0629867203      1.4988496111      0.4455003710
H      2.7125047226      0.5671809124      0.4409872710
H      2.7113150831     -0.5613075202      0.4440707142
H      1.8425378258     -2.0399607009     -0.4963806014
H      0.7795432729     -2.4024274496     -0.4938224045
H     -0.2923678825     -2.7300253494     -0.4847457398
H     -1.3700567371     -2.3829289848     -0.4884762871
H     -2.0427763119     -1.4841661057     -0.4936947852
H     -2.6896688616     -0.5666387475     -0.4884844288
H     -2.6867529857      0.5655629576     -0.4847605125
H     -2.0439500820      1.4837776862     -0.4938398247
H     -1.3707403415      2.3827371939     -0.4964004264
H     -0.2903217836      2.7340863914     -0.5007944730
H      0.7823488563      2.4044835137     -0.5078812527
H      1.8444249358      2.0417175947     -0.5065252628
H      2.5117496129      1.1232239907     -0.5065211456
H      2.5285609713      0.0010287728     -0.5078704790
H      2.5105584679     -1.1209944784     -0.5007771923
H      1.2469126915     -2.0337623075     -1.4460223192
H      0.1849083750     -2.3788603331     -1.4418305278
H     -0.8800899735     -2.7109066373     -1.4334607388
H     -1.5458621806     -1.8140064875     -1.4402044464
H     -2.2029142198     -0.9096519564     -1.4402085003
H     -2.8501820697      0.0006924565     -1.4334728938
H     -2.2052846597      0.9109580868     -1.4418452747
H     -1.5488995495      1.8143430444     -1.4460395686
H     -0.8824873420      2.7100748271     -1.4447308836
H      0.1840782181      2.3775483094     -1.4543692776
H      1.2474422483      2.0323712714     -1.4571110887
H      2.3056527864      1.6751483201     -1.4532846689
H      2.3183869977      0.5583423072     -1.4571044813
H      2.3180723200     -0.5596425376     -1.4543561114
H      2.3047369260     -1.6767629523     -1.4447112193
H      0.4789967560     -1.4812394946     -2.0426711034
H     -0.5901210405     -1.8147102545     -2.0281612746
H     -1.2592086473     -0.9148777969     -2.0404355999
H     -1.9082407966     -0.0004740861     -2.0281694070
H     -1.2607156431      0.9132691550     -2.0426818369
H     -0.5921149326      1.8119812580     -2.0353111061
H      0.4783617259      1.4777842345     -2.0499092561
H      1.5406428093      1.1193333936     -2.0408135509
H      1.5532869678     -0.0017234075     -2.0499026241
H      1.5403317023     -1.1230796835     -2.0352979495
H     -0.2984394743     -0.9121781683     -2.6134299093
H     -0.9597447188     -0.0019696024     -2.6134339893
H     -0.2994383812      0.9074137509     -2.6168645930
H      0.7704791031      0.5597741034     -2.6195011520
H      0.7704813781     -0.5652044355     -2.6168579919
H     -0.0048190598     -0.0035155454     -3.1886859927
