 147
 LJ_147
H      0.0000000000      0.0000000000      0.0000000000
H     -0.0000021826      0.0000030559      1.0354793546
H      0.2861984862     -0.8808299810      0.4630836480
H     -0.7492808713     -0.5443823525      0.4630804725
H     -0.7492808807      0.5443850729      0.4630772594
H      0.2861984710      0.8808327191      0.4630784490
H      0.9261599144      0.0000013746      0.4630823974
H     -0.2861984710     -0.8808327191     -0.4630784490
H     -0.9261599144     -0.0000013746     -0.4630823974
H     -0.2861984862      0.8808299810     -0.4630836480
H      0.7492808713      0.5443823525     -0.4630804725
H      0.7492808807     -0.5443850729     -0.4630772594
H      0.0000021826     -0.0000030559     -1.0354793546
H     -0.0000044198      0.0000061884      2.0969146183
H      0.2928618020     -0.9013413423      1.5334644638
H     -0.7667338206     -0.5570578646      1.5334612143
H     -0.7667338302      0.5570669024      1.5334579264
H      0.2928617864      0.9013503984      1.5334591437
H      0.9477279015      0.0000045337      1.5334631841
H      1.2405941702     -0.9013430627      0.9477364086
H      0.5795709849     -1.7837393426      0.9377752116
H     -0.4738675519     -1.4584054610      0.9477344389
H     -1.5173436392     -1.1024104998      0.9377687811
H     -1.5334631841      0.0000027837      0.9477279014
H     -1.5173436582      1.1024160087      0.9377622743
H     -0.4738675770      1.4584110467      0.9477258308
H      0.5795709542      1.7837448876      0.9377646834
H      1.2405941547      0.9013486780      0.9477310885
H      1.8755354752      0.0000027837      0.9377726791
H      1.0595956322     -1.4584082447      0.0000065374
H      0.0000000155     -1.8026917407      0.0000053200
H     -1.0595956071     -1.4584082630      0.0000020706
H     -1.7144617221     -0.5570623983     -0.0000019697
H     -1.7144617317      0.5570623687     -0.0000052577
H     -1.0595956322      1.4584082447     -0.0000065374
H     -0.0000000155      1.8026917407     -0.0000053200
H      1.0595956071      1.4584082630     -0.0000020706
H      1.7144617221      0.5570623983      0.0000019697
H      1.7144617317     -0.5570623687      0.0000052577
H      0.4738675770     -1.4584110467     -0.9477258308
H     -0.5795709542     -1.7837448876     -0.9377646834
H     -1.2405941547     -0.9013486780     -0.9477310885
H     -1.8755354752     -0.0000027837     -0.9377726791
H     -1.2405941702      0.9013430627     -0.9477364086
H     -0.5795709849      1.7837393426     -0.9377752116
H      0.4738675519      1.4584054610     -0.9477344389
H      1.5173436392      1.1024104998     -0.9377687811
H      1.5334631841     -0.0000027837     -0.9477279014
H      1.5173436582     -1.1024160087     -0.9377622743
H     -0.2928617864     -0.9013503984     -1.5334591437
H     -0.9477279015     -0.0000045337     -1.5334631841
H     -0.2928618020      0.9013413423     -1.5334644638
H      0.7667338206      0.5570578646     -1.5334612143
H      0.7667338302     -0.5570669024     -1.5334579264
H      0.0000044198     -0.0000061884     -2.0969146183
H     -0.0000067320      0.0000094257      3.1938995511
H      0.2969722870     -0.9139959609      2.6213811061
H     -0.7775035063     -0.5648776227      2.6213778111
H     -0.7775035160      0.5648930816      2.6213744769
H      0.2969722712      0.9140114382      2.6213757114
H      0.9610348376      0.0000077444      2.6213798085
H      1.2648798015     -0.9189860462      2.0466308558
H      0.5917142209     -1.8211162476      2.0319030373
H     -0.4831470382     -1.4869544126      2.0466288475
H     -1.5491433865     -1.1255094645      2.0318964720
H     -1.5634870542      0.0000060265      2.0466221821
H     -1.5491434058      1.1255214308      2.0318898288
H     -0.4831470638      1.4869664841      2.0466200710
H      0.5917141895      1.8211282507      2.0318922884
H      1.2648797856      0.9189981479      2.0466254316
H      1.9148369679      0.0000060130      2.0319004517
H      2.2118160321     -0.9139994369      1.4379481662
H      1.5527558357     -1.8211179922      1.4379494541
H      0.8827691373     -2.7168890120      1.4283651806
H     -0.1857825082     -2.3860033593      1.4379474567
H     -1.2521643222     -2.0395149144      1.4379441865
H     -2.3111304227     -1.6791281676      1.4283553859
H     -2.3266401253     -0.5606258719      1.4379375573
H     -2.3266401349      0.5606343190      1.4379342482
H     -2.3111304516      1.6791365584      1.4283454751
H     -1.2521643574      2.0395233800      1.4379321485
H     -0.1857825493      2.3860118433      1.4379333737
H      0.8827690905      2.7168974578      1.4283491446
H      1.5527558043      1.8211265061      1.4379387052
H      2.2118160164      0.9140079622      1.4379427714
H      2.8567075931      0.0000042399      1.4283613232
H      2.0466244720     -1.4869590049      0.4831514393
H      1.3692154892     -2.3860061821      0.4769103714
H      0.2947397019     -2.7351245388      0.4769091370
H     -0.7817423678     -2.4059511263      0.4831481898
H     -1.8461179054     -2.0395177557      0.4769025717
H     -2.5101804718     -1.1255140619      0.4768984746
H     -2.5297692332      0.0000014040      0.4831374050
H     -2.5101804911      1.1255168334      0.4768918314
H     -1.8461179405      2.0395205387      0.4768905337
H     -0.7817424093      2.4059539645      0.4831339891
H      0.2947396548      2.7351273587      0.4768929933
H      1.3692154481      2.3860090205      0.4768962884
H      2.0466244464      1.4869618918      0.4831426628
H      2.6923382265      0.5648867828      0.4769044517
H      2.6923382362     -0.5648839215      0.4769077858
H      1.8461179405     -2.0395205387     -0.4768905337
H      0.7817424093     -2.4059539645     -0.4831339891
H     -0.2947396548     -2.7351273587     -0.4768929933
H     -1.3692154481     -2.3860090205     -0.4768962884
H     -2.0466244464     -1.4869618918     -0.4831426628
H     -2.6923382265     -0.5648867828     -0.4769044517
H     -2.6923382362      0.5648839215     -0.4769077858
H     -2.0466244720      1.4869590049     -0.4831514393
H     -1.3692154892      2.3860061821     -0.4769103714
H     -0.2947397019      2.7351245388     -0.4769091370
H      0.7817423678      2.4059511263     -0.4831481898
H      1.8461179054      2.0395177557     -0.4769025717
H      2.5101804718      1.1255140619     -0.4768984746
H      2.5297692332     -0.0000014040     -0.4831374050
H      2.5101804911     -1.1255168334     -0.4768918314
H      1.2521643574     -2.0395233800     -1.4379321485
H      0.1857825493     -2.3860118433     -1.4379333737
H     -0.8827690905     -2.7168974578     -1.4283491446
H     -1.5527558043     -1.8211265061     -1.4379387052
H     -2.2118160164     -0.9140079622     -1.4379427714
H     -2.8567075931     -0.0000042399     -1.4283613232
H     -2.2118160321      0.9139994369     -1.4379481662
H     -1.5527558357      1.8211179922     -1.4379494541
H     -0.8827691373      2.7168890120     -1.4283651806
H      0.1857825082      2.3860033593     -1.4379474567
H      1.2521643222      2.0395149144     -1.4379441865
H      2.3111304227      1.6791281676     -1.4283553859
H      2.3266401253      0.5606258719     -1.4379375573
H      2.3266401349     -0.5606343190     -1.4379342482
H      2.3111304516     -1.6791365584     -1.4283454751
H      0.4831470638     -1.4869664841     -2.0466200710
H     -0.5917141895     -1.8211282507     -2.0318922884
H     -1.2648797856     -0.9189981479     -2.0466254316
H     -1.9148369679     -0.0000060130     -2.0319004517
H     -1.2648798015      0.9189860462     -2.0466308558
H     -0.5917142209      1.8211162476     -2.0319030373
H      0.4831470382      1.4869544126     -2.0466288475
H      1.5491433865      1.1255094645     -2.0318964720
H      1.5634870542     -0.0000060265     -2.0466221821
H      1.5491434058     -1.1255214308     -2.0318898288
H     -0.2969722712     -0.9140114382     -2.6213757114
H     -0.9610348376     -0.0000077444     -2.6213798085
H     -0.2969722870      0.9139959609     -2.6213811061
H      0.7775035063      0.5648776227     -2.6213778111
H      0.7775035160     -0.5648930816     -2.6213744769
H      0.0000067320     -0.0000094257     -3.1938995511
