 148
 LJ_148
H      0.0108413917     -0.0000000635     -0.0216933521
H      0.0122323837      0.0000029766      1.0134520501
H      0.2972041421     -0.8808679525      0.4415833402
H     -0.7381577473     -0.5445918152      0.4411899133
H     -0.7381577649      0.5445943827      0.4411867145
H      0.2972041136      0.8808705559      0.4415781662
H      0.9372755321      0.0000013111      0.4412552937
H     -0.2758578384     -0.8809626210     -0.4843327447
H     -0.9159164308     -0.0000014364     -0.4840644917
H     -0.2758578669      0.8809597672     -0.4843379193
H      0.7597323600      0.5444657578     -0.4848301742
H      0.7597323776     -0.5444685810     -0.4848269762
H      0.0099713687     -0.0000031039     -1.0569238561
H      0.0130791360      0.0000060925      2.0744351587
H      0.3047033144     -0.9015036006      1.5122000426
H     -0.7535500171     -0.5577073680      1.5101028648
H     -0.7535500351      0.5577162135      1.5100995889
H      0.3047032852      0.9015124927      1.5121947474
H      0.9596743921      0.0000044564      1.5120997725
H      1.2517354245     -0.9013135280      0.9260018705
H      0.5906740458     -1.7837664905      0.9163824987
H     -0.4625461786     -1.4586063949      0.9263477696
H     -1.5059533903     -1.1012953333      0.9189835124
H     -1.5228236133      0.0000026864      0.9231033889
H     -1.5059534260      1.1013006824      0.9189770437
H     -0.4625462258      1.4586118210      0.9263392021
H      0.5906739881      1.7837718922      0.9163720213
H      1.2517353953      0.9013190075      0.9259965764
H      1.8866828159      0.0000027203      0.9158643015
H      1.0701941845     -1.4584864616     -0.0217372516
H      0.0104082977     -1.8027748931     -0.0211126688
H     -1.0493127143     -1.4584635304     -0.0203009578
H     -1.7040882127     -0.5574871490     -0.0208177645
H     -1.7040882307      0.5574869716     -0.0208210390
H     -1.0493127615      1.4584633772     -0.0203095244
H      0.0104082393      1.8027747694     -0.0211232578
H      1.0701941373      1.4584863685     -0.0217458184
H      1.7251279898      0.5571132741     -0.0220873736
H      1.7251280078     -0.5571133480     -0.0220841013
H      0.4838585237     -1.4585361572     -0.9691592606
H     -0.5698005364     -1.7838929699     -0.9583847041
H     -1.2307030403     -0.9015131800     -0.9681902294
H     -1.8657180463     -0.0000028435     -0.9579450207
H     -1.2307030695      0.9015074533     -0.9681955246
H     -0.5698005941      1.7838873221     -0.9583951821
H      0.4838584765      1.4585304802     -0.9691678276
H      1.5274230936      1.1025041684     -0.9598088365
H      1.5435669830     -0.0000028232     -0.9697896209
H      1.5274231293     -1.1025097566     -0.9598023607
H     -0.2832876029     -0.9014357199     -1.5545384687
H     -0.9381723889     -0.0000045797     -1.5542242230
H     -0.2832876320      0.9014265798     -1.5545437635
H      0.7764002302      0.5571234265     -1.5551490016
H      0.7764002482     -0.5571325358     -1.5551457291
H      0.0092769637     -0.0000062207     -2.1182106020
H      0.0016704507      0.0000093164      3.1722077877
H      0.3098794201     -0.9137665803      2.6006282387
H     -0.7597991178     -0.5682139283      2.5940997006
H     -0.7597991362      0.5682291407      2.5940963630
H      0.3098793905      0.9137818657      2.6006228714
H      0.9710003164      0.0000076559      2.6014827825
H      1.2766557555     -0.9187648144      2.0252044313
H      0.6035082681     -1.8211083964      2.0106641903
H     -0.4711295169     -1.4874898921      2.0250820559
H     -1.5380827813     -1.1198043628      2.0159994637
H     -1.5479011862      0.0000058878      2.0133145650
H     -1.5380828175      1.1198161544      2.0159928863
H     -0.4711295651      1.4875017716      2.0250733187
H      0.6035082092      1.8211202260      2.0106534936
H      1.2766557258      0.9187767512      2.0251990347
H      1.9261867754      0.0000059360      2.0106061323
H      2.2230870101     -0.9139392934      1.4158938911
H      1.5640472340     -1.8210259207      1.4161431765
H      0.8940572457     -2.7168532504      1.4068851915
H     -0.1745405339     -2.3860740642      1.4170272721
H     -1.2408440298     -2.0372031937      1.4196406920
H     -2.2987552373     -1.6768757643      1.4114083948
H     -2.3157001980     -0.5595884761      1.4182542424
H     -2.3157002161      0.5595967315      1.4182509555
H     -2.2987552916      1.6768839801      1.4113985453
H     -1.2408440957      2.0372114921      1.4196287260
H     -0.1745406111      2.3860823817      1.4170132569
H      0.8940571578      2.7168615429      1.4068692334
H      1.5640471750      1.8210342893      1.4161324802
H      2.2230869805      0.9139476819      1.4158885228
H      2.8678458282      0.0000041759      1.4060941684
H      2.0574456480     -1.4869813345      0.4610154980
H      1.3799928242     -2.3860441660      0.4551299960
H      0.3053581368     -2.7350947742      0.4558151408
H     -0.7713721506     -2.4058886403      0.4632731141
H     -1.8351681933     -2.0385651708      0.4585654414
H     -2.4989179093     -1.1252474651      0.4580801328
H     -2.5197088173      0.0000013183      0.4627671886
H     -2.4989179457      1.1252500749      0.4580735234
H     -1.8351682593      2.0385678049      0.4585534674
H     -0.7713722284      2.4058913364      0.4632589825
H      0.3053580483      2.7350974614      0.4557990756
H      1.3799927470      2.3860468839      0.4551159810
H      2.0574455999      1.4869841089      0.4610067639
H      2.7031496598      0.5648834973      0.4544768494
H      2.7031496780     -0.5648807404      0.4544801674
H      1.8563828453     -2.0396093404     -0.4990038140
H      0.7918791524     -2.4060629613     -0.5045667604
H     -0.2848375912     -2.7351957965     -0.4974033288
H     -1.3592883939     -2.3860413880     -0.4964951459
H     -2.0366878562     -1.4873435128     -0.5027832955
H     -2.6823491863     -0.5651123188     -0.4965340594
H     -2.6823492046      0.5651093155     -0.4965373787
H     -2.0366879043      1.4873404937     -0.5027920318
H     -1.3592884711      2.3860384277     -0.4965091608
H     -0.2848376797      2.7351928656     -0.4974193946
H      0.7918790745      2.4060600232     -0.5045808929
H      1.8563827793      2.0396064694     -0.4990157941
H      2.5205016059      1.1255759146     -0.4993815881
H      2.5401264985     -0.0000014439     -0.5056392074
H      2.5205016423     -1.1255787662     -0.4993749768
H      1.2618197829     -2.0396636414     -1.4597207054
H      0.1952730095     -2.3861595032     -1.4589263247
H     -0.8733778910     -2.7170242498     -1.4484862245
H     -1.5432923256     -1.8213173590     -1.4579029343
H     -2.2022389968     -0.9141192389     -1.4576663586
H     -2.8471304118     -0.0000042981     -1.4478255797
H     -2.2022390263      0.9141106057     -1.4576717279
H     -1.5432923845      1.8213087457     -1.4579136322
H     -0.8733779790      2.7170157135     -1.4485021835
H      0.1952729323      2.3861509402     -1.4589403403
H      1.2618197169      2.0396551082     -1.4597326858
H      2.3208512945      1.6792197112     -1.4507750460
H      2.3364074906      0.5606664529     -1.4603964184
H      2.3364075087     -0.5606749552     -1.4603931252
H      2.3208513488     -1.6792281575     -1.4507651827
H      0.4924200020     -1.4871156135     -2.0680356320
H     -0.5825438211     -1.8212865793     -2.0524981667
H     -1.2556915075     -0.9191007503     -2.0670208740
H     -1.9056273157     -0.0000060572     -2.0519704110
H     -1.2556915372      0.9190885685     -2.0670262725
H     -0.5825438801      1.8212745046     -2.0525088644
H      0.4924199539      1.4871034823     -2.0680443668
H      1.5584996271      1.1256029313     -2.0539402201
H      1.5728553394     -0.0000060500     -2.0687004005
H      1.5584996635     -1.1256149451     -2.0539336086
H     -0.2880665702     -0.9140996925     -2.6423762107
H     -0.9521322719     -0.0000077747     -2.6420439934
H     -0.2880665998      0.9140841625     -2.6423815798
H      0.7864762418      0.5649338984     -2.6430235144
H      0.7864762601     -0.5649493974     -2.6430201961
H      0.0086177444     -0.0000094422     -3.2150935497
H     -1.5541967631      0.0000091099      3.1104595604
