 149
 LJ_149
H      0.0269920012     -0.0037417904     -0.0389431348
H      0.0291565241     -0.0038732666      0.9960164993
H      0.3132212751     -0.8847368994      0.4246658094
H     -0.7216717538     -0.5486674559      0.4236927139
H     -0.7216095396      0.5413316911      0.4232654541
H      0.3132313633      0.8772779017      0.4244999388
H      0.9533854126     -0.0037210073      0.4242131731
H     -0.2601514182     -0.8848026791     -0.5012403791
H     -0.9001197227     -0.0036108611     -0.5009784869
H     -0.2599808808      0.8774234007     -0.5014504210
H      0.7756364630      0.5408113813     -0.5019082730
H      0.7755835581     -0.5483493073     -0.5018415930
H      0.0256468064     -0.0037465945     -1.0739599653
H      0.0274138384     -0.0030819934      2.0574658132
H      0.3214846198     -0.9053572071      1.4954579170
H     -0.7343137640     -0.5639272396      1.4918226448
H     -0.7350285351      0.5544933236      1.4913058582
H      0.3211910987      0.8979528729      1.4950404991
H      0.9755332642     -0.0036451071      1.4954648027
H      1.2677263158     -0.9050066197      0.9091817810
H      0.6065158692     -1.7876085591      0.8996802494
H     -0.4465873937     -1.4628706266      0.9093083222
H     -1.4904995400     -1.1030036895      0.9038017424
H     -1.5054507771     -0.0039289353      0.9035308298
H     -1.4889392296      1.0980908622      0.9006569927
H     -0.4464804456      1.4554345601      0.9093924515
H      0.6065538023      1.7801985435      0.8995061037
H      1.2676668255      0.8976016234      0.9091649423
H      1.9025307025     -0.0036872121      0.8991069699
H      1.0859448338     -1.4623799842     -0.0386027961
H      0.0258917196     -1.8066156197     -0.0377883204
H     -1.0339423560     -1.4621004335     -0.0364828183
H     -1.6881448305     -0.5612538612     -0.0378619803
H     -1.6884314976      0.5542402426     -0.0378846417
H     -1.0336548621      1.4554236766     -0.0373223797
H      0.0261338917      1.7992005947     -0.0379866672
H      1.0860547102      1.4548581682     -0.0387203722
H      1.7410018926      0.5534295741     -0.0390760050
H      1.7409727109     -0.5609429689     -0.0390510306
H      0.4993503642     -1.4624462729     -0.9859358639
H     -0.5546207775     -1.7877142078     -0.9747344780
H     -1.2152643207     -0.9052903479     -0.9846524019
H     -1.8501781770     -0.0035617856     -0.9745042014
H     -1.2150562929      0.8979856207     -0.9849053428
H     -0.5542553418      1.7804263702     -0.9751476653
H      0.4995924478      1.4549388679     -0.9861334061
H      1.5431874392      1.0988043594     -0.9768627741
H      1.5592878557     -0.0038232886     -0.9868036018
H      1.5430536689     -1.1064495423     -0.9767716965
H     -0.2679112909     -0.9052622465     -1.5712712116
H     -0.9226925680     -0.0037111355     -1.5709698369
H     -0.2677253667      0.8977699424     -1.5714643604
H      0.7920014248      0.5533787299     -1.5721578506
H      0.7919144335     -0.5610281535     -1.5720928320
H      0.0246929427     -0.0038187288     -2.1351121370
H      0.0148153681     -0.0026194018      3.1548143450
H      0.3255764035     -0.9167515268      2.5837080694
H     -0.7438360437     -0.5728374931      2.5770281890
H     -0.7511870855      0.5626902676      2.5771948828
H      0.3224529357      0.9100614982      2.5835452762
H      0.9853836816     -0.0029498291      2.5846621122
H      1.2928225893     -0.9222435460      2.0087814159
H      0.6197220445     -1.8248367352      1.9941483508
H     -0.4546107961     -1.4919678340      2.0086765366
H     -1.5216874736     -1.1224259380      2.0009488312
H     -1.5220626472     -0.0071369161      1.9883366600
H     -1.5156845979      1.1178669785      1.9939682688
H     -0.4547450686      1.4836158570      2.0083453279
H      0.6192558623      1.8174725617      1.9940054343
H      1.2919348577      0.9152823589      2.0089168303
H      1.9417456885     -0.0034204280      1.9940922569
H      2.2389640200     -0.9175693834      1.3991661920
H      1.5799020993     -1.8246795732      1.3993770849
H      0.9098179962     -2.7205968168      1.3902021033
H     -0.1588999331     -2.3899745750      1.4004801497
H     -1.2255208085     -2.0394849485      1.4036247301
H     -2.2833992014     -1.6765402938      1.3971874114
H     -2.2990953051     -0.5578737767      1.4078730789
H     -2.2970475015      0.5551018587      1.3921005145
H     -2.2830252527      1.6660683015      1.4018173983
H     -1.2254320110      2.0341327472      1.4026811376
H     -0.1588131375      2.3825048623      1.4004252840
H      0.9098283648      2.7131865073      1.3900882094
H      1.5797655863      1.8173136210      1.3993862405
H      2.2387216398      0.9102899970      1.3992829814
H      2.8835351517     -0.0036013015      1.3893798326
H      2.0732341161     -1.4908064607      0.4441467651
H      1.3956561015     -2.3899116123      0.4383511681
H      0.3207519962     -2.7388291826      0.4392710629
H     -0.7563321626     -2.4096920029      0.4470462086
H     -1.8201418841     -2.0403580964      0.4436262668
H     -2.4831127812     -1.1262239321      0.4442218592
H     -2.5038078813     -0.0038446165      0.4453669663
H     -2.4832350509      1.1230022718      0.4408971804
H     -1.8205207025      2.0346928603      0.4440689947
H     -0.7559236572      2.4024335090      0.4466284404
H      0.3209858123      2.7314372165      0.4390772093
H      1.3957826648      2.3824138414      0.4382315541
H      2.0732520748      1.4833145753      0.4441421444
H      2.7188956009      0.5612006304      0.4376393002
H      2.7189026305     -0.5686031060      0.4376097297
H      1.8719533321     -2.0435562504     -0.5159009714
H      0.8072509681     -2.4099767290     -0.5212232262
H     -0.2697824764     -2.7389913844     -0.5136910025
H     -1.3444450377     -2.3894501333     -0.5122231597
H     -2.0217646710     -1.4907372038     -0.5183381194
H     -2.6668662878     -0.5686939438     -0.5128193727
H     -2.6667946777      0.5618257650     -0.5130985519
H     -2.0210032330      1.4842507732     -0.5192992942
H     -1.3440804199      2.3827405496     -0.5126277843
H     -0.2693035979      2.7316133889     -0.5140614621
H      0.8075593718      2.4024583273     -0.5214406831
H      1.8721489991      2.0359234973     -0.5160188757
H      2.5362766026      1.1218525173     -0.5163989005
H      2.5558913612     -0.0037940109     -0.5226401961
H      2.5361806471     -1.1294720078     -0.5163642730
H      1.2771366684     -2.0436472742     -1.4765188312
H      0.2103244386     -2.3900452836     -1.4753848143
H     -0.8585702242     -2.7207488250     -1.4644763506
H     -1.5283414534     -1.8250281314     -1.4738315901
H     -2.1869240691     -0.9177593590     -1.4738070010
H     -2.8316715441     -0.0035338790     -1.4641384811
H     -2.1866851693      0.9106092896     -1.4741102761
H     -1.5277742454      1.8178291329     -1.4744363627
H     -0.8579663587      2.7134703291     -1.4649698837
H      0.2108184013      2.3825617570     -1.4757447845
H      1.2774754723      2.0359916216     -1.4767242242
H      2.3365194570      1.6754401921     -1.4678650059
H      2.3520457831      0.5568301765     -1.4774652516
H      2.3519710440     -0.5646013060     -1.4774294539
H      2.3362912293     -1.6832169607     -1.4677553511
H      0.5076370878     -1.4910873276     -2.0847886905
H     -0.5675562133     -1.8251497610     -2.0688212760
H     -1.2405105077     -0.9228960486     -2.0834375861
H     -1.8902823569     -0.0036690463     -2.0684545836
H     -1.2402679937      0.9154527791     -2.0836869884
H     -0.5670831886      1.8176738532     -2.0692321529
H      0.5079460725      1.4834201542     -2.0849947849
H      1.5740527065      1.1218073417     -2.0709874809
H      1.5883337892     -0.0039067973     -2.0857179083
H      1.5738652684     -1.1296098459     -2.0708881346
H     -0.2729139915     -0.9180032882     -2.6590351683
H     -0.9368613092     -0.0038001375     -2.6587142916
H     -0.2726980358      0.9103306120     -2.6592264499
H      0.8018642872      0.5610834175     -2.6599885867
H      0.8017569159     -0.5689061566     -2.6599209736
H      0.0238338993     -0.0039146297     -3.2319032220
H     -1.5481111261     -0.0126705459      3.0847514935
H     -2.3202993117      0.5480911181      2.4956577507
