 150
 LJ_150
H      0.0426594645     -0.0000001578     -0.0559281009
H      0.0452090014      0.0000028183      0.9789127980
H      0.3287519244     -0.8811056748      0.4077958592
H     -0.7057223105     -0.5452729331      0.4061373767
H     -0.7057223876      0.5452751693      0.4061342405
H      0.3287517998      0.8811080667      0.4077907915
H      0.9689490755      0.0000012404      0.4074871413
H     -0.2446354866     -0.8812221466     -0.5181786258
H     -0.8846760847     -0.0000015515     -0.5177554692
H     -0.2446356112      0.8812191317     -0.5181836942
H      0.7911038575      0.5446529164     -0.5186656144
H      0.7911039345     -0.5446557876     -0.5186624818
H      0.0410259725     -0.0000031340     -1.0907900814
H      0.0414220365      0.0000058716      2.0407278853
H      0.3371078140     -0.9016569657      1.4784923225
H     -0.7177413532     -0.5596105053      1.4737303021
H     -0.7177414323      0.5596188800      1.4737270834
H      0.3371076865      0.9016655170      1.4784871365
H      0.9907633746      0.0000043235      1.4790605862
H      1.2831134077     -0.9012858177      0.8926201454
H      0.6219256105     -1.7839781081      0.8829579100
H     -0.4311109814     -1.4594857236      0.8925308141
H     -1.4739425256     -1.1003498297      0.8848783931
H     -1.4884221467      0.0000024424      0.8858877379
H     -1.4739426812      1.1003547107      0.8848720644
H     -0.4311111878      1.4594907960      0.8925224197
H      0.6219253582      1.7839832744      0.8829476494
H      1.2831132802      0.9012911331      0.8926149616
H      1.9178422652      0.0000026740      0.8826853505
H      1.1014215844     -1.4586932182     -0.0553478964
H      0.0413198827     -1.8029926540     -0.0545621044
H     -1.0185901836     -1.4590529219     -0.0535806990
H     -1.6728457144     -0.5578272938     -0.0546116807
H     -1.6728457933      0.5578267431     -0.0546148891
H     -1.0185903899      1.4590524697     -0.0535890908
H      0.0413196277      1.8029923460     -0.0545724744
H      1.1014213782      1.4586930556     -0.0553562861
H      1.7564141534      0.5572172839     -0.0557083538
H      1.7564142322     -0.5572173559     -0.0557051489
H      0.5148086422     -1.4587877265     -1.0027440508
H     -0.5392843581     -1.7841972185     -0.9914963685
H     -1.1999014907     -0.9017069890     -1.0013130304
H     -1.8349070511     -0.0000029797     -0.9910096569
H     -1.1999016182      0.9017010602     -1.0013182165
H     -0.5392846104      1.7841914395     -0.9915066303
H      0.5148084359      1.4587820320     -1.0027524411
H      1.5585219744      1.1026879390     -0.9935389843
H      1.5747055001     -0.0000027745     -1.0035154661
H      1.5585221304     -1.1026934329     -0.9935326421
H     -0.2525705777     -0.9015721441     -1.5880683149
H     -0.9074370088     -0.0000046298     -1.5876198777
H     -0.2525707052      0.9015629745     -1.5880735003
H      0.8072847722      0.5572429480     -1.5888713907
H      0.8072848510     -0.5572519723     -1.5888681857
H      0.0399370324     -0.0000061854     -2.1518448323
H      0.0267237229      0.0000090248      3.1375561802
H      0.3379516314     -0.9131379496      2.5668804106
H     -0.7348574760     -0.5682788104      2.5596361135
H     -0.7348575564      0.5682934283      2.5596328450
H      0.3379515023      0.9131527609      2.5668751587
H      0.9991974830      0.0000074563      2.5682244854
H      1.3074930110     -0.9187073903      1.9926330779
H      0.6351397603     -1.8211917512      1.9775200447
H     -0.4382526587     -1.4884341586      1.9915391893
H     -1.4981049547     -1.1224977328      1.9774664939
H     -1.5022145734      0.0000055575      1.9694576407
H     -1.4981051134      1.1225088944      1.9774600378
H     -0.4382528692      1.4884455510      1.9915306285
H      0.6351395027      1.8212032147      1.9775095700
H      1.3074928811      0.9187190359      1.9926277938
H      1.9566790456      0.0000058263      1.9778884023
H      2.2540636099     -0.9138948045      1.3828853750
H      1.5951985283     -1.8209597837      1.3828106855
H      0.9252407400     -2.7169444567      1.3734731944
H     -0.1434749434     -2.3865693175      1.3836290218
H     -1.2104045515     -2.0374499443      1.3858664470
H     -2.2680524749     -1.6663029213      1.3872078024
H     -2.2807277185     -0.5542133855      1.3805151022
H     -2.2807277969      0.5542210030      1.3805119146
H     -2.2680527105      1.6663105791      1.3871982186
H     -1.2104048396      2.0374577439      1.3858547285
H     -0.1434752809      2.3865772552      1.3836152953
H      0.9252403557      2.7169524871      1.3734575677
H      1.5951982708      1.8209679625      1.3828002121
H      2.2540634807      0.9139030769      1.3828801187
H      2.8986715798      0.0000041537      1.3730903558
H      2.0886146770     -1.4870708825      0.4275840970
H      1.4110925888     -2.3862066824      0.4216434994
H      0.3361704891     -2.7351811636      0.4224827510
H     -0.7410744137     -2.4062391049      0.4300812822
H     -1.8059601810     -2.0369091418      0.4285809020
H     -2.4679547842     -1.1243074364      0.4266605611
H     -2.4880773390      0.0000010550      0.4280200174
H     -2.4679549432      1.1243095414      0.4266540946
H     -1.8059604691      2.0369113514      0.4285691867
H     -0.7410747540      2.4062414737      0.4300674426
H      0.3361701023      2.7351836410      0.4224670195
H      1.4110922513      2.3862093071      0.4216297750
H      2.0886144668      1.4870736371      0.4275755440
H      2.7341946169      0.5648926617      0.4211715153
H      2.7341946968     -0.5648898526      0.4211747643
H      1.8874260890     -2.0397984055     -0.5326254048
H      0.8227006895     -2.4062923744     -0.5379961181
H     -0.2544032095     -2.7353744901     -0.5304562538
H     -1.3294504044     -2.3861600945     -0.5286180525
H     -2.0062924957     -1.4875287565     -0.5349733134
H     -2.6515612030     -0.5653775135     -0.5294326120
H     -2.6515612830      0.5653740934     -0.5294358638
H     -2.0062927060      1.4875253959     -0.5349818690
H     -1.3294507419      2.3861568660     -0.5286317765
H     -0.2544035963      2.7353714032     -0.5304719864
H      0.8227003492      2.4062893964     -0.5380099580
H      1.8874258005      2.0397956090     -0.5326371368
H      2.5516092255      1.1256849698     -0.5330049588
H      2.5712964753     -0.0000013689     -0.5392481847
H      2.5516093847     -1.1256876745     -0.5329984844
H      1.2925996862     -2.0398957367     -1.4933124294
H      0.2257213056     -2.3863743103     -1.4921718771
H     -0.8432810557     -2.7171498695     -1.4810967896
H     -1.5129912524     -1.8214783992     -1.4904537373
H     -2.1715940516     -0.9142229686     -1.4903334892
H     -2.8164408702     -0.0000044568     -1.4805225591
H     -2.1715941809      0.9142140898     -1.4903387474
H     -1.5129915100      1.8214696128     -1.4904642136
H     -0.8432814400      2.7171412316     -1.4811124173
H      0.2257209682      2.3863657599     -1.4921856024
H      1.2925993977      2.0398873306     -1.4933241619
H      2.3517494305      1.6793625945     -1.4845047275
H      2.3673807477      0.5607297141     -1.4941361660
H      2.3673808270     -0.5607379729     -1.4941329409
H      2.3517496680     -1.6793708001     -1.4844950685
H      0.5230089508     -1.4873298389     -2.1015864856
H     -0.5522261787     -1.8214848146     -2.0855571643
H     -1.2252405891     -0.9192247516     -2.1000787112
H     -1.8751053882     -0.0000061284     -2.0849286916
H     -1.2252407191      0.9192124996     -2.1000839982
H     -0.5522264363      1.8214727413     -2.0855676406
H      0.5230087404      1.4873178255     -2.1015950400
H      1.5892566492      1.1257474543     -2.0876561670
H      1.6036436427     -0.0000059327     -2.1024348193
H      1.5892568084     -1.1257592368     -2.0876496922
H     -0.2576541571     -0.9142129246     -2.6757801929
H     -0.9217074038     -0.0000077588     -2.6753130770
H     -0.2576542863      0.9141974983     -2.6757854510
H      0.8170346816      0.5650118624     -2.6766711087
H      0.8170347615     -0.5650271418     -2.6766678589
H      0.0389875552     -0.0000093394     -3.2485717422
H     -1.5295572669      0.0000087222      3.0705963421
H     -2.3000962251      0.5595186793      2.4828619639
H     -2.3000961460     -0.5595047243      2.4828651819
