13
0
Ag -0.858985 -0.858985 -0.858985
Ag 1.38253 -0.35022 -0.35022
Ag -0.35022 1.38253 -0.35022
Ag -0.35022 -0.35022 1.38253
Ag 1.92075 1.92075 0.180276
Ag 0.180276 1.92075 1.92075
Ag 1.92075 0.180276 1.92075
Ag 3.95168 1.02903 1.02903
Ag 1.02903 3.95168 1.02903
Ag 1.02903 1.02903 3.95168
Ag 3.27873 3.27873 1.58793
Ag 1.58793 3.27873 3.27873
Ag 3.27873 1.58793 3.27873
